21
i = 1, time = 1.000, E = -696.8117944026
O 5.3647447300 5.8270718700 6.8630269800
H 1.9794456300 3.9821897700 3.0946940200
O 2.9574884900 3.7993972600 3.1502659300
H 3.0184872100 3.5567322100 4.0967246800
H 6.4038255700 4.6318363100 8.1217236200
O 6.9450855800 3.7994287800 8.1309438800
H 7.8764761700 4.1023299100 8.1525427500
H 6.1587415900 6.4705276300 5.6396395400
O 6.7696663500 6.4864298900 4.8050039200
H 6.9753640000 7.4081034900 4.6039486900
H 4.7963758800 4.5519160800 6.2791532200
O 4.6794751800 3.5673855400 5.8814938300
H 4.6637256700 3.0931098000 6.7417966400
H 4.6058232800 6.4265096200 6.9136257700
Na 6.9106935100 4.3142227100 5.4314716200
H 5.5922958800 5.8955311400 2.8712624300
O 5.5092733400 5.6936557600 1.8946626800
H 4.6719054500 5.1943060300 1.8580514400
H 7.9410333000 2.7305305000 3.1183480700
O 7.9604292300 3.7070355000 3.1516913100
H 7.0236602300 3.9914936200 3.0671113800
21
i = 2, time = 2.000, E = -696.8105598985
O 5.4139271000 5.8744854400 6.9050298700
H 2.0569500300 3.7535781900 3.0691436700
O 3.0416266800 3.6179682500 3.1422328500
H 3.1044201900 3.4995636400 4.1125033000
H 6.4827247800 4.6033652800 8.1120083500
O 6.9978563200 3.7555871800 8.1114086900
H 7.9384447700 4.0332666800 8.1396759000
H 6.1435711800 6.3293459300 5.7988154200
O 6.7663549000 6.3775424900 4.9012804600
H 7.0550634200 7.2875695800 4.7691096600
H 4.8481959900 4.5940231100 6.3057066500
O 4.7218824200 3.6104381500 5.9271516600
H 4.6729278200 3.1501287100 6.7930301600
H 4.6633596100 6.4847211600 6.9544872300
Na 6.9814275800 4.1111348700 5.4292347600
H 5.5886277000 5.9798368800 2.9209379900
O 5.4664301000 5.8312922600 1.9369096200
H 4.6641807300 5.2781675100 1.9029704800
H 8.0177210000 2.7337039400 3.0935634800
O 8.0474381500 3.7082528500 3.1410963300
H 7.1197168600 4.0214595900 3.0542071900
21
i = 3, time = 3.000, E = -696.8145685372
O 5.4115788200 5.8677258600 6.9178640100
H 2.1791824800 4.0725025700 3.1500494900
O 3.1055775000 3.7530165100 3.1996978300
H 3.1498200800 3.4812057600 4.1378688700
H 6.5163173600 4.6590663200 8.1785509800
O 7.0917574400 3.8499185300 8.1802845000
H 8.0106957600 4.1913826400 8.2118858100
H 6.0009698800 6.2210416600 5.7980670800
O 6.5762437000 6.2045062400 4.8115143300
H 7.0561902700 7.0335575000 4.6925688400
H 4.8095027100 4.4922327300 6.2407156100
O 4.7277081600 3.5175318400 5.9277210600
H 4.6757588600 3.0962039200 6.8131344100
H 4.6558359400 6.4709225600 6.9703961600
Na 7.1631314500 4.1981072900 5.6771657800
H 5.6598610300 5.8990576400 2.9392506100
O 5.5578807800 5.7410552700 1.9489234700
H 4.7627503700 5.1785420700 1.9157659400
H 8.0714778500 2.8731970300 3.1610335000
O 8.1065873300 3.8457374100 3.2038613000
H 7.1842541300 4.1790951400 3.1394483700
21
i = 4, time = 4.000, E = -696.8063850570
O 5.2805887700 6.0142482800 6.8522610200
H 1.9383587100 3.7923188200 3.1223577300
O 2.9162966100 3.6611184700 3.2008309000
H 2.9775675800 3.6096053800 4.1758872900
H 6.4596149800 4.5479707400 8.1851088000
O 6.9005674000 3.6662010800 8.1770261900
H 7.8572860600 3.8758558300 8.2025456400
H 5.8847811900 6.2487348600 5.8127486300
O 6.5745289600 6.2018166500 4.8125281000
H 6.9416141400 7.0738605400 4.6315709000
H 4.7488584800 4.5353078500 6.7090379100
O 4.6689997800 3.6502035300 6.1556100300
H 4.5853439000 2.9582317000 6.8296607400
H 4.5253229700 6.6196743000 6.8726440900
Na 6.8869470700 4.1319111700 5.5214102900
H 5.5976520400 5.9069456900 2.8431827700
O 5.4660983500 5.7423183600 1.8623810600
H 4.6181920300 5.2627525500 1.8375174900
H 7.8859852700 2.6876574100 3.1591416300
O 7.9200483800 3.6608718200 3.2004122200
H 6.9967438000 3.9901986100 3.1264163400
21
i = 5, time = 5.000, E = -696.8114559959
O 5.3730609300 6.0139763700 6.9395115900
H 2.0759819400 4.0207026600 3.1651397800
O 3.0519592500 3.8885150700 3.2440883100
H 3.1095289800 3.7803924600 4.2147287800
H 6.5530347900 4.7497776400 8.2202602900
O 7.0414672300 3.8914668500 8.2198931200
H 7.9853382400 4.1549169200 8.2431451600
H 5.8614018400 6.1210093700 5.9356148800
O 6.5204394700 5.9675437200 4.7757352800
H 7.0535598000 6.7487537100 4.5878894700
H 4.7394635800 4.4518773300 6.7836789500
O 4.6303007100 3.6064024300 6.2122673100
H 4.4730939000 2.9270378500 6.8904225400
H 4.6686021500 6.6779195800 6.9596433000
Na 6.9817412500 3.9482697300 5.6137420000
H 5.6891326800 5.8625185200 2.9533379100
O 5.5580355600 5.7419240300 1.9519944900
H 4.7126093400 5.2588201500 1.9197262500
H 8.0091726400 2.8301429800 3.1884987100
O 8.0574761800 3.8001365100 3.2430856400
H 7.1483029400 4.1783842500 3.1838333100
21
i = 6, time = 6.000, E = -696.8060335569
O 5.3653775500 6.1172320200 6.8667847700
H 2.0339267600 3.9133404600 3.1060223600
O 3.0059067300 3.7537368100 3.1886329300
H 3.0602529000 3.6637265700 4.1604955000
H 6.5629785500 4.7042746200 8.1701232200
O 6.9561337600 3.8020174700 8.1544321100
H 7.9245557700 3.9578977900 8.1844724900
H 5.8363665000 6.3335256100 5.9588611300
O 6.5700769900 6.2936937600 4.7217210400
H 7.0138511300 7.1212390900 4.5084886300
H 4.7692926200 4.5230465000 6.7062362100
O 4.7162125500 3.6901663200 6.1246221400
H 4.6999785300 2.9945487000 6.8076816200
H 4.6142727200 6.7284016400 6.8993589300
Na 6.9799193200 4.3181191000 5.4953769600
H 5.6676557600 6.0846793200 2.8842995900
O 5.5123391100 5.9689207700 1.8875380200
H 4.6962159600 5.4392331900 1.8535065800
H 7.9661912000 2.8748235200 3.1360214400
O 8.0108542700 3.8463440900 3.1851271600
H 7.0977733400 4.2062426400 3.1118846200
21
i = 7, time = 7.000, E = -696.8067678529
O 5.3213143200 6.1544341900 6.9080865100
H 1.9948786800 3.9774696900 3.0623101600
O 2.9630143800 3.7982909300 3.1435172600
H 3.0124558800 3.6548331300 4.1090205600
H 6.5587500700 4.7365639500 8.1203982400
O 6.9816240800 3.8483974100 8.1068517700
H 7.9386477400 4.0437107900 8.1328986700
H 5.7112201000 6.3353335700 6.0255368900
O 6.3837244900 6.2899386500 4.6312425200
H 6.9273876100 7.0596953500 4.4277384100
H 4.6864112800 4.4238044400 6.7912236700
O 4.6308977200 3.6096531600 6.2065137700
H 4.6732429000 2.8983000800 6.8691318400
H 4.5488561100 6.7373745400 6.9441569100
Na 6.8920980600 4.2890126600 5.3399289300
H 5.6895615800 6.0121399500 2.9369024300
O 5.5579850800 5.8321667700 1.9308183200
H 4.6975527000 5.3780709100 1.8979542800
H 7.9216431700 2.9216803800 3.0825663000
O 7.9671468600 3.8923976100 3.1394989300
H 7.0589930900 4.2671722100 3.0463361000
21
i = 8, time = 8.000, E = -696.7959714970
O 5.3678886400 6.2933210500 6.9572343100
H 1.9069076400 4.2750000500 3.1256023100
O 2.8312020600 3.9394648000 3.1849836300
H 2.8483287900 3.5707848800 4.0924385500
H 6.4211482700 4.8728325200 8.1433857100
O 6.8496406600 3.9839799200 8.1456453700
H 7.8035558500 4.1884229500 8.1687239600
H 5.8712667800 6.4024542400 6.1897046000
O 6.7589634400 6.1962040500 4.8121053000
H 6.9916479500 7.0819764900 4.5123002200
H 5.0151275400 4.6418200000 5.5109543200
O 5.0954060900 3.6977819200 5.7421618500
H 5.1487852300 3.7273242700 6.7278040400
H 4.7378952300 7.0251481900 6.9830543000
Na 7.8189968900 4.3150292500 5.3125796200
H 5.8582887400 5.9944083100 2.9814743000
O 5.6940844300 5.8787948900 1.9800730400
H 4.7881384400 5.5244931200 1.9467742500
H 7.7817440900 2.8080479400 3.1163750800
O 7.8448770700 3.7793606800 3.1581929800
H 6.9320915700 4.1505266800 3.1089523000
