3       
 i =        1, time =       85.000, E =       -76.4214103553
  O         0.0000000000         0.0000000000         0.2044070700
  H         0.6542503700         0.0000000000        -0.5095819300
  H        -0.6542503700         0.0000000000        -0.5095819300
3       
 i =        2, time =       90.000, E =       -76.4261078367
  O         0.0000000000         0.0000000000         0.1844585500
  H         0.6840662200         0.0000000000        -0.4996076700
  H        -0.6840662200         0.0000000000        -0.4996076700
3       
 i =        3, time =       95.000, E =       -76.4293408482
  O         0.0000000000         0.0000000000         0.1645120900
  H         0.7138756700         0.0000000000        -0.4896344400
  H        -0.7138756700         0.0000000000        -0.4896344400
3       
 i =        4, time =      100.000, E =       -76.4312805439
  O         0.0000000000         0.0000000000         0.1398309900
  H         0.7354607900         0.0000000000        -0.4772938900
  H        -0.7354607900         0.0000000000        -0.4772938900
3       
 i =        5, time =      105.000, E =       -76.4319496950
  O         0.0000000000         0.0000000000         0.1176405500
  H         0.7608740900         0.0000000000        -0.4661986700
  H        -0.7608740900         0.0000000000        -0.4661986700
3       
 i =        6, time =      110.000, E =       -76.4314366521
  O         0.0000000000         0.0000000000         0.0954539000
  H         0.7862800900         0.0000000000        -0.4551053400
  H        -0.7862800900         0.0000000000        -0.4551053400
3       
 i =        7, time =      115.000, E =       -76.4295434217
  O         0.0000000000         0.0000000000         0.0753198300
  H         0.8167986700         0.0000000000        -0.4450383100
  H        -0.8167986700         0.0000000000        -0.4450383100
3       
 i =        8, time =      120.000, E =       -76.4270152371
  O         0.0000000000         0.0000000000         0.0508873100
  H         0.8378091900         0.0000000000        -0.4328220500
  H        -0.8378091900         0.0000000000        -0.4328220500
3       
 i =        9, time =      125.000, E =       -76.4235815793
  O         0.0000000000         0.0000000000         0.0264605500
  H         0.8588119800         0.0000000000        -0.4206086700
  H        -0.8588119800         0.0000000000        -0.4206086700
3       
 i =       10, time =      130.000, E =       -76.4187707203
  O         0.0000000000         0.0000000000         0.0036618400
  H         0.8854050400         0.0000000000        -0.4092093100
  H        -0.8854050400         0.0000000000        -0.4092093100
